Version 4
SHEET 1 2336 1060
WIRE 928 -176 800 -176
WIRE 1120 -176 992 -176
WIRE 800 -96 800 -176
WIRE 928 -96 800 -96
WIRE 1120 -96 1120 -176
WIRE 1120 -96 1008 -96
WIRE 960 32 960 16
WIRE 352 48 192 48
WIRE 496 48 432 48
WIRE 592 48 496 48
WIRE 800 48 800 -96
WIRE 800 48 688 48
WIRE 928 48 800 48
WIRE 1120 64 1120 -96
WIRE 1120 64 992 64
WIRE 1344 64 1120 64
WIRE 192 80 192 48
WIRE 928 80 880 80
WIRE 1344 96 1344 64
WIRE 880 112 880 80
WIRE 960 128 960 96
WIRE 496 160 496 48
WIRE 528 160 496 160
WIRE 656 160 656 96
WIRE 656 160 608 160
WIRE 704 160 656 160
WIRE 816 160 784 160
WIRE 496 176 496 160
WIRE 192 192 192 160
WIRE 1344 208 1344 176
WIRE 496 288 496 256
WIRE 496 288 432 288
WIRE 432 304 432 288
WIRE 496 304 496 288
WIRE 496 416 496 384
WIRE 528 416 496 416
WIRE 656 416 608 416
WIRE 704 416 656 416
WIRE 816 416 816 160
WIRE 816 416 784 416
WIRE 1120 416 816 416
WIRE 656 448 656 416
WIRE 384 496 176 496
WIRE 496 496 496 416
WIRE 496 496 464 496
WIRE 592 496 496 496
WIRE 736 496 688 496
WIRE 880 496 736 496
WIRE 944 496 880 496
WIRE 1120 496 1120 416
WIRE 1120 496 1008 496
WIRE 176 512 176 496
WIRE 1216 560 1216 544
WIRE 1328 560 1328 544
WIRE 368 592 288 592
WIRE 736 592 736 496
WIRE 736 592 448 592
WIRE 176 624 176 592
WIRE 976 624 976 608
WIRE 880 640 880 496
WIRE 944 640 880 640
WIRE 288 656 288 592
WIRE 1120 656 1120 496
WIRE 1120 656 1008 656
WIRE 944 672 880 672
WIRE 1216 672 1216 640
WIRE 1328 672 1328 640
WIRE 880 688 880 672
WIRE 976 720 976 688
WIRE 288 768 288 736
FLAG 960 16 +V
IOPIN 960 16 In
FLAG 976 608 +V
IOPIN 976 608 In
FLAG 192 192 0
FLAG 176 624 0
FLAG 288 768 0
FLAG 1216 672 0
FLAG 1216 544 +V
IOPIN 1216 544 Out
FLAG 1344 208 0
FLAG 1328 672 0
FLAG 1328 544 -V
IOPIN 1328 544 Out
FLAG 960 128 -V
IOPIN 960 128 In
FLAG 976 720 -V
IOPIN 976 720 In
FLAG 432 304 0
FLAG 880 112 0
FLAG 880 688 0
SYMBOL res 1024 -112 R90
WINDOW 0 0 56 VBottom 2
WINDOW 3 32 56 VTop 2
SYMATTR InstName R10
SYMATTR Value 500k
SYMBOL Opamps\\opamp2 960 0 R0
SYMATTR InstName U1
SYMATTR Value LM324
SYMATTR SpiceModel LM324
SYMBOL voltage 192 64 R0
WINDOW 123 0 0 Left 2
WINDOW 39 0 0 Left 2
WINDOW 3 40 68 Left 2
SYMATTR Value SINE(0 1 250)
SYMATTR InstName V1
SYMBOL Opamps\\opamp2 976 592 R0
SYMATTR InstName U2
SYMATTR Value LM324
SYMATTR SpiceModel LM324
SYMBOL res 448 32 R90
WINDOW 0 0 56 VBottom 2
WINDOW 3 32 56 VTop 2
SYMATTR InstName R1
SYMATTR Value 5k
SYMBOL njf 592 448 M90
SYMATTR InstName J1
SYMATTR Value 2N5484
SYMBOL njf 592 96 R270
SYMATTR InstName J2
SYMATTR Value 2N5484
SYMBOL res 480 160 R0
SYMATTR InstName R2
SYMATTR Value 20
SYMBOL res 480 288 R0
SYMATTR InstName R4
SYMATTR Value 20
SYMBOL res 624 144 R90
WINDOW 0 0 56 VBottom 2
WINDOW 3 32 56 VTop 2
SYMATTR InstName R5
SYMATTR Value 17k
SYMBOL res 800 144 R90
WINDOW 0 0 56 VBottom 2
WINDOW 3 32 56 VTop 2
SYMATTR InstName R7
SYMATTR Value 17k
SYMBOL res 624 400 R90
WINDOW 0 0 56 VBottom 2
WINDOW 3 32 56 VTop 2
SYMATTR InstName R6
SYMATTR Value 17k
SYMBOL res 800 400 R90
WINDOW 0 0 56 VBottom 2
WINDOW 3 32 56 VTop 2
SYMATTR InstName R8
SYMATTR Value 17k
SYMBOL res 480 480 R90
WINDOW 0 0 56 VBottom 2
WINDOW 3 32 56 VTop 2
SYMATTR InstName R3
SYMATTR Value 5k
SYMBOL res 464 576 R90
WINDOW 0 0 56 VBottom 2
WINDOW 3 32 56 VTop 2
SYMATTR InstName R9
SYMATTR Value 500k
SYMBOL cap 1008 480 R90
WINDOW 0 0 32 VBottom 2
WINDOW 3 32 32 VTop 2
SYMATTR InstName C2
SYMATTR Value 10p
SYMBOL voltage 176 496 R0
WINDOW 123 0 0 Left 2
WINDOW 39 0 0 Left 2
WINDOW 3 37 57 Left 2
SYMATTR Value 7
SYMATTR InstName Vr
SYMBOL voltage 288 640 R0
WINDOW 123 0 0 Left 2
WINDOW 39 0 0 Left 2
WINDOW 3 24 98 Left 2
SYMATTR Value SINE(-2.5 1 5000)
SYMATTR InstName V2
SYMBOL voltage 1216 544 R0
WINDOW 123 0 0 Left 2
WINDOW 39 0 0 Left 2
SYMATTR InstName V5
SYMATTR Value 15
SYMBOL res 1328 80 R0
SYMATTR InstName Rload
SYMATTR Value 10k
SYMBOL cap 928 -160 R270
WINDOW 0 32 32 VTop 2
WINDOW 3 0 32 VBottom 2
SYMATTR InstName C1
SYMATTR Value 10p
SYMBOL voltage 1328 656 R180
WINDOW 123 0 0 Left 2
WINDOW 39 0 0 Left 2
SYMATTR InstName V3
SYMATTR Value 15
TEXT 208 -72 Left 2 !.tran 10m
TEXT 384 -88 Bottom 2 ;FET Controlled Analog Multiplier V1
TEXT 208 -40 Left 2 !.inc LM324.inc
TEXT 240 816 Left 2 ;V2 can range from zero to a negative limit.
TEXT 1096 680 Left 2 ;Vc
TEXT 240 888 Left 2 ;Vr must remain positive
TEXT 496 24 Left 2 ;v3
TEXT 480 520 Left 2 ;v4
TEXT 240 840 Left 2 ;Vc control voltage: must only operate from zero down to 2Vp
TEXT 240 864 Left 2 ;v3 and v4 must always be less than +/-1V with respect to zero
